; Filename: epanet_sim\modelos\red_apr.inp
; WNTR: 1.3.2
; Created: 2025-04-13 17:33:49
[TITLE]

[JUNCTIONS]
;ID                      Elevation       Demand Pattern                 
 2                             1166.1               0                            ;
 3                               1145               0                            ;
 4                               1145               0                            ;
 5                            1108.49           0.094                            ;
 6                            1128.08           0.031                            ;
 7                            1112.37           0.094                            ;
 8                            1104.08           0.031                            ;
 9                            1104.08               0                            ;
 10                           1086.73           0.094                            ;
 11                           1081.46           0.063                            ;
 12                           1086.23           0.094                            ;
 13                           1049.88               0                            ;
 14                            1064.2           0.157                            ;
 15                           1086.85           0.314                            ;
 18                           1063.01           0.063                            ;
 19                           1085.49           0.565                            ;
 24                           1050.02           0.188                            ;
 25                           1050.02               0                            ;
 26                           1019.62           0.063                            ;
 27                           1017.95           0.094                            ;
 28                           1019.62               0                            ;
 29                           1023.12           0.188                            ;
 30                               995               0                            ;
 31                               995           0.157                            ;
 32                            944.07           0.094                            ;
 33                            951.16           0.094                            ;
 34                            963.68           0.126                            ;
 35                            943.78           0.157                            ;
 36                            940.03           0.063                            ;
 37                            946.13           0.157                            ;
 38                            946.13           0.126                            ;
 39                            947.03            0.22                            ;
 40                            946.38           0.251                            ;
 41                             954.2           0.031                            ;
 42                            963.15           0.126                            ;
 43                            966.15           0.251                            ;
 45                              1109           0.157                            ;
 47                           1091.64           0.126                            ;
 48                           1045.72           0.126                            ;
 49                           1045.72               0                            ;
 50                           1002.52           0.188                            ;
 51                            991.49           0.126                            ;
 52                            991.51           0.031                            ;
 54                           1047.67           0.063                            ;
 55                           1064.62           0.094                            ;
 56                           1053.53           0.157                            ;
 58                           1095.64           0.094                            ;
 59                           1121.57           0.126                            ;
 60                              1110           0.031                            ;
 61                           1137.48            0.22                            ;
 62                           1135.81           0.094                            ;
 63                            1166.1           0.001                            ;
 64                           1122.16           0.063                            ;
 65                           1091.64               0                            ;
 66                           1002.52               0                            ;
 67                            991.49               0                            ;
 68                            1020.3               0                            ;
 69                           1108.49               0                            ;
 70                              1109               0                            ;
 71                           1095.64               0                            ;
 72                              1110               0                            ;
 73                           1122.16               0                            ;
 74                           1168.68           0.157                            ;
 75                           1185.05           0.063                            ;
 76                              1072               0                            ;
 77                           1058.12               0                            ;
 78                              1059               0                            ;
 79                              1072               0                            ;
 80                              1072               0                            ;
 81                           1058.12               0                            ;
 82                              1059               0                            ;
 83                              1072               0                            ;

[RESERVOIRS]
;ID                                   Head                  Pattern

[TANKS]
;ID                              Elevation           Init Level            Min Level            Max Level             Diameter           Min Volume Volume Curve         Overflow            
 1                            1204.99            0.01               0              20              50               0                                             ;

[PIPES]
;ID                   Node1                Node2                              Length             Diameter            Roughness           Minor Loss               Status
 1                    1                    2                                117            96.8             140               0                 Open   ;
 2                    2                    3                                 93            96.8             140               0                 Open   ;
 27                   5                    76                               161              66             140               0                 Open   ;
 28                   45                   47                               469              66             140               0                 Open   ;
 65                   65                   48                               518              66             140               0                 Open   ;
 70                   54                   55                               337              66             140               0                 Open   ;
 71                   55                   56                               437              66             140               0                 Open   ;
 29                   47                   58                                24              66             140               0                 Open   ;
 30                   58                   59                               538              66             140               0                 Open   ;
 31                   58                   60                               114              66             140               0                 Open   ;
 33                   64                   61                               425              66             140               0                 Open   ;
 34                   64                   62                               377              66             140               0                 Open   ;
 74                   49                   50                               310              66             140               0                 Open   ;
 75                   50                   51                               271              66             140               0                 Open   ;
 76                   51                   52                               163              66             140               0                 Open   ;
 23                   4                    5                                298              66             140               0                 Open   ;
 24                   5                    6                                406              66             140               0                 Open   ;
 25                   5                    7                                289              66             140               0                 Open   ;
 26                   7                    8                                221              66             140               0                 Open   ;
 36                   9                    10                               374            96.8             140               0                 Open   ;
 37                   10                   11                               158              66             140               0                 Open   ;
 38                   11                   12                                64              66             140               0                 Open   ;
 39                   11                   13                               293              66             140               0                 Open   ;
 40                   13                   14                               388              66             140               0                 Open   ;
 41                   14                   15                               348              66             140               0                 Open   ;
 42                   14                   18                                46              66             140               0                 Open   ;
 43                   18                   19                               392              66             140               0                 Open   ;
 44                   18                   24                               471              66             140               0                 Open   ;
 46                   25                   26                               453              66             140               0                 Open   ;
 47                   26                   27                               380              66             140               0                 Open   ;
 48                   26                   28                                 7              66             140               0                 Open   ;
 49                   28                   29                               211              66             140               0                 Open   ;
 50                   28                   30                                51              66             140               0                 Open   ;
 52                   31                   32                               565              66             140               0                 Open   ;
 53                   32                   33                               406              66             140               0                 Open   ;
 54                   33                   34                               560              66             140               0                 Open   ;
 55                   32                   35                                53              66             140               0                 Open   ;
 56                   35                   36                               217              66             140               0                 Open   ;
 57                   35                   37                               202              66             140               0                 Open   ;
 58                   37                   38                                 9           77.92             110               0                 Open   ;
 59                   38                   39                                81              66             140               0                 Open   ;
 60                   39                   40                               160              66             140               0                 Open   ;
 61                   40                   41                               178              66             140               0                 Open   ;
 62                   39                   42                               315              66             140               0                 Open   ;
 63                   42                   43                               276              66             140               0                 Open   ;
 77                   2                    63                                10              66             140               0                 Open   ;
 32                   60                   64                               114              66             140               0                 Open   ;
 66                   48                   66                               292            61.4             140               0                 Open   ;
 67                   66                   67                               292            61.4             140               0                 Open   ;
 68                   67                   68                               100            61.4             140               0                 Open   ;
 69                   68                   54                               359              66             140               0                 Open   ;
 78                   3                    69                               298            61.4             140               0                 Open   ;
 79                   69                   80                               161            61.4             140               0                 Open   ;
 80                   70                   71                               469            61.4             140               0                 Open   ;
 81                   71                   72                               114            61.4             140               0                 Open   ;
 82                   72                   73                               114            61.4             140               0                 Open   ;
 83                   73                   74                               378              66             140               0                 Open   ;
 84                   74                   75                                93              66             140               0                 Open   ;
 85                   80                   81                               100            61.4             140               0                 Open   ;
 86                   81                   82                                25           77.92             110               0                 Open   ;
 87                   82                   83                               100            61.4             140               0                 Open   ;
 88                   83                   70                               100            61.4             140               0                 Open   ;
 89                   76                   77                                39            61.4             140               0                 Open   ;
 90                   77                   78                                25           77.92             140               0                 Open   ;
 91                   78                   79                                41            61.4             140               0                 Open   ;
 92                   79                   45                               159              66             140               0                 Open   ;

[PUMPS]
;ID                   Node1                Node2                Properties          

[VALVES]
;ID                   Node1                Node2                            Diameter Type              Setting           Minor Loss
 73_CRP6              48                   49                                66 PRV               15               0   ;
 22_CRP1              3                    4                                 66 PRV               25               0   ;
 35_CRP2              8                    9                                 66 PRV               20               0   ;
 45_CRP3              24                   25                                66 PRV               15               0   ;
 51_CRP4              30                   31                                66 PRV               15               0   ;
 64_CRP5              47                   65                                66 PRV               15               0   ;

[TAGS]
;type      name       tag       

[DEMANDS]
;ID        Demand     Pattern   

[STATUS]
;ID        Setting   

[PATTERNS]
;ID        Multipliers

[CURVES]
;ID         X-Value      Y-Value     

[CONTROLS]

[RULES]

[ENERGY]
GLOBAL EFFICIENCY      75.0000
GLOBAL PRICE           0.0000
DEMAND CHARGE          0.0000

[EMITTERS]
;ID        Flow coefficient

[QUALITY]

[SOURCES]
;Node      Type       Quality    Pattern   

[REACTIONS]
;Type           Pipe/Tank               Coefficient

 ORDER BULK 1
 ORDER TANK 1
 ORDER WALL 1
 GLOBAL BULK 0.0000    
 GLOBAL WALL 0.0000    
 LIMITING POTENTIAL 0.0000    
 ROUGHNESS CORRELATION 0.0000    

[MIXING]
;Tank ID             Model Fraction

[TIMES]
DURATION             720:00:00
HYDRAULIC TIMESTEP   00:15:00
QUALITY TIMESTEP     00:05:00
PATTERN TIMESTEP     01:00:00
PATTERN START        00:00:00
REPORT TIMESTEP      01:00:00
REPORT START         00:00:00
START CLOCKTIME      00:00:00 AM
RULE TIMESTEP        00:06:00
STATISTIC            NONE      

[REPORT]
SUMMARY    NO
PAGE       0

[OPTIONS]
UNITS                LPS                 
HEADLOSS             H-W                 
SPECIFIC GRAVITY     1
VISCOSITY            1
TRIALS               40
ACCURACY             0.001
CHECKFREQ            2
MAXCHECK             10
UNBALANCED           CONTINUE 10
DEMAND MULTIPLIER    1
EMITTER EXPONENT     0.5
QUALITY              NONE                
DIFFUSIVITY          1
TOLERANCE            0.01

[COORDINATES]
;Node      X-Coord    Y-Coord   
2                3784.252000000       9351.755000000
3                3972.786000000       9267.961000000
4                4070.545000000       9257.487000000
5                4164.812000000       8559.211000000
6                3183.735000000       8559.211000000
7                3885.502000000       7801.582000000
8                3784.252000000       7246.453000000
9                3745.847000000       7120.763000000
10               3386.235000000       6233.953000000
11               3089.468000000       5982.574000000
12               3012.657000000       6153.651000000
13               2555.287000000       5713.738000000
14               2275.976000000       5102.746000000
15               1993.175000000       5965.117000000
18               2321.364000000       5001.496000000
19               1357.744000000       5490.289000000
24               3068.519000000       4016.927000000
25               3183.735000000       3894.729000000
26               3766.795000000       2903.178000000
27               3190.718000000       2609.902000000
28               3798.217000000       2920.634000000
29               4290.502000000       3119.643000000
30               3724.964000000       2366.895000000
31               3474.304000000       2303.203000000
32               3578.261000000       1251.755000000
33               2632.097000000       1876.712000000
34               2146.795000000       3311.669000000
35               3686.493000000       1147.014000000
36               4122.916000000        766.454000000
37               4119.424000000       1482.186000000
38               4192.743000000       1517.100000000
39               4363.821000000       1524.083000000
40               4388.261000000       1098.135000000
41               4517.442000000        644.255000000
42               4810.717000000       2159.514000000
43               4891.019000000       2927.617000000
45               5222.700000000       8234.513000000
47               5575.329000000       7026.496000000
48               5561.364000000       5682.315000000
49               5488.045000000       5570.591000000
50               5124.941000000       4984.039000000
51               5110.976000000       4240.376000000
52               4999.252000000       3800.462000000
54               5467.097000000       3552.574000000
55               6210.760000000       3091.712000000
56               5316.967000000       2389.945000000
58               5645.157000000       7012.531000000
59               6614.306000000       7406.176000000
60               5821.097000000       7308.173000000
61               5575.329000000       8660.461000000
62               6036.511000000       7823.889000000
63               3850.588000000       9449.513000000
64               5918.950000000       7583.766000000
65               5555.201000000       6891.595000000
66               5220.743000000       5000.269000000
67               5204.396000000       4207.959000000
68               5417.220000000       4093.124000000
69               4215.581000000       8579.275000000
70               5266.117000000       8229.096000000
71               5621.299000000       7055.997000000
72               5788.884000000       7313.628000000
73               5911.447000000       7656.303000000
74               6256.623000000       8549.259000000
75               6484.239000000       8799.387000000
76               4413.485000000       8390.971000000
77               4569.741000000       8311.197000000
78               4693.699000000       8262.559000000
79               5022.909000000       8218.615000000
80               4364.224000000       8482.209000000
81               4592.660000000       8359.205000000
82               4720.057000000       8319.668000000
83               5020.472000000       8269.779000000
1                3560.804000000       9568.220000000

[VERTICES]
;Link      X-Coord    Y-Coord   
27               4190.342000000       8544.119000000
27               4237.798000000       8515.334000000
27               4265.193000000       8496.362000000
27               4299.303000000       8476.871000000
28               5268.058000000       7951.776000000
28               5289.605000000       7795.556000000
28               5281.525000000       7631.256000000
28               5278.832000000       7607.015000000
28               5303.073000000       7577.387000000
28               5394.650000000       7448.102000000
28               5445.825000000       7367.299000000
28               5483.533000000       7202.999000000
28               5561.643000000       7149.130000000
28               5585.884000000       7068.327000000
65               5556.256000000       6890.560000000
65               5577.804000000       6858.238000000
65               5561.643000000       6804.370000000
65               5534.709000000       6718.179000000
65               5513.161000000       6570.040000000
65               5510.468000000       6524.252000000
65               5451.212000000       6392.273000000
65               5413.504000000       6209.119000000
65               5429.664000000       6106.768000000
65               5507.774000000       6060.979000000
65               5567.030000000       5904.760000000
65               5583.191000000       5737.766000000
70               5505.081000000       3615.334000000
70               5585.884000000       3626.108000000
70               5653.220000000       3558.772000000
70               5852.535000000       3456.421000000
70               5938.725000000       3402.552000000
70               5984.514000000       3362.150000000
70               6014.141000000       3337.909000000
70               6086.864000000       3189.770000000
71               6032.996000000       2853.090000000
71               5758.264000000       2567.585000000
71               5596.658000000       2427.526000000
71               5497.001000000       2384.431000000
71               5405.423000000       2422.139000000
30               5839.068000000       6939.042000000
30               5911.791000000       6920.188000000
30               6022.222000000       6928.268000000
30               6089.558000000       6933.655000000
30               6194.602000000       6887.866000000
30               6216.150000000       6909.414000000
30               6256.551000000       7062.940000000
30               6248.471000000       7084.488000000
30               6315.807000000       7291.883000000
30               6393.917000000       7324.204000000
30               6550.136000000       7299.963000000
31               5734.023000000       7143.743000000
31               5817.520000000       7291.883000000
33               5866.424000000       7621.285000000
33               5709.782000000       7782.089000000
33               5688.235000000       8062.207000000
33               5674.768000000       8167.251000000
33               5690.928000000       8401.581000000
33               5639.753000000       8493.158000000
33               5580.497000000       8617.056000000
34               5986.485000000       7726.339000000
34               6011.498000000       7771.362000000
74               5354.248000000       5374.152000000
74               5294.992000000       5250.253000000
74               5165.707000000       5177.530000000
74               5125.305000000       5104.807000000
75               5173.787000000       4816.609000000
75               5130.692000000       4474.542000000
75               5114.532000000       4461.075000000
75               5119.919000000       4277.921000000
23               4117.958000000       9231.161000000
23               4236.470000000       9056.087000000
23               4271.484000000       8918.722000000
23               4266.097000000       8816.371000000
23               4217.615000000       8743.648000000
23               4212.229000000       8652.071000000
24               4147.586000000       8670.925000000
24               4085.637000000       8716.714000000
24               3985.979000000       8700.553000000
24               3894.402000000       8679.005000000
24               3641.219000000       8695.166000000
24               3474.225000000       8662.845000000
24               3280.297000000       8590.122000000
25               4190.681000000       8544.333000000
25               4080.250000000       8318.084000000
25               3980.592000000       8005.645000000
26               3886.322000000       7674.351000000
26               3875.548000000       7491.197000000
36               3484.999000000       6381.499000000
36               3439.211000000       6273.761000000
37               3215.655000000       6020.578000000
37               3142.932000000       5969.402000000
38               3029.807000000       6079.834000000
39               3056.742000000       5955.935000000
39               2903.216000000       6060.979000000
39               2843.960000000       6071.753000000
39               2806.252000000       6044.819000000
39               2744.302000000       5896.680000000
39               2693.127000000       5821.263000000
39               2569.229000000       5821.263000000
39               2544.988000000       5778.168000000
40               2569.229000000       5627.335000000
40               2668.886000000       5570.773000000
40               2744.302000000       5498.050000000
40               2768.543000000       5441.488000000
40               2768.543000000       5379.539000000
40               2706.594000000       5339.137000000
40               2590.776000000       5309.509000000
40               2518.053000000       5341.830000000
40               2493.812000000       5333.750000000
40               2499.199000000       5320.283000000
40               2388.768000000       5301.429000000
40               2313.352000000       5234.093000000
40               2286.417000000       5172.144000000
41               2229.855000000       5099.421000000
41               2178.680000000       5185.611000000
41               2151.745000000       5287.962000000
41               2135.585000000       5446.875000000
41               2097.876000000       5573.466000000
41               2084.409000000       5573.466000000
41               1992.832000000       5864.358000000
42               2264.870000000       5072.486000000
43               2200.227000000       5042.858000000
43               1990.139000000       5174.837000000
43               1699.247000000       5293.348000000
43               1526.867000000       5422.634000000
44               2445.330000000       4935.121000000
44               2539.601000000       4811.222000000