; Filename: epanet_sim/modelos/red_apr_estructurada.inp
; WNTR: 1.3.2
; Created: 2025-04-13 19:23:11
[TITLE]

[JUNCTIONS]
;ID                      Elevation       Demand Pattern                 
 Sondaje                 295.27559055               0                            ;
 Nodo1                   324.80314961               0                            ;
 J1                      311.73554219    87.826640527 patron_J1                  ;
 J2                      308.68887346    87.081675339 patron_J2                  ;
 J3                       312.8742999    91.884323251 patron_J3                  ;
 J4                      312.94667923    92.185479391 patron_J4                  ;
 J5                      313.50533377    95.624999513 patron_J5                  ;
 J6                      311.73176668     89.20561864 patron_J6                  ;
 J7                      309.48651496    87.303579863 patron_J7                  ;
 J8                      313.55794245    103.23315462 patron_J8                  ;
 J9                      312.43217911    80.472090589 patron_J9                  ;
 J10                     311.33257739    99.096220281 patron_J10                 ;
 J11                      308.8609877    101.45791843 patron_J11                 ;
 J12                     308.65595641    103.50261011 patron_J12                 ;
 J13                      312.8689421    85.417391409 patron_J13                 ;
 J14                     312.67038324    84.529773314 patron_J14                 ;
 J15                     311.10135975    90.933303863 patron_J15                 ;
 J16                     309.66305702    79.473520231 patron_J16                 ;
 J17                     314.18385683    102.99539977 patron_J17                 ;
 J18                     312.78238613    81.882769349 patron_J18                 ;
 J19                     309.45454098    78.776106013 patron_J19                 ;
 J20                     311.19117396    90.172488352 patron_J20                 ;
 J21                     311.15021767    95.292142727 patron_J21                 ;
 J22                      312.3346841     79.86977831 patron_J22                 ;
 J23                     310.80763156    97.875745399 patron_J23                 ;
 J24                     311.45252029    82.469231305 patron_J24                 ;
 J25                     310.46843722    87.002423724 patron_J25                 ;
 J26                     311.21688914    97.685541521 patron_J26                 ;
 J27                      312.0322944    81.470660947 patron_J27                 ;
 J28                     314.30452901    91.377112911 patron_J28                 ;
 J29                     311.90579769    95.101938849 patron_J29                 ;
 J30                     309.00242816    104.10492239 patron_J30                 ;
 J31                     311.48894317    93.564457504 patron_J31                 ;
 J32                     309.71282828    95.387244665 patron_J32                 ;
 J33                     308.68767305    79.933179603 patron_J33                 ;
 J34                     312.87705143    97.051528595 patron_J34                 ;
 J35                      310.6017611    97.146630534 patron_J35                 ;
 J36                     311.86715696      86.7805192 patron_J36                 ;
 J37                     309.62437168    90.124937383 patron_J37                 ;
 J38                     313.95788669    88.745959269 patron_J38                 ;
 J39                     309.38067841    98.493908001 patron_J39                 ;
 J40                     310.97464183    85.797799165 patron_J40                 ;
 J41                     312.37409253    87.240178571 patron_J41                 ;
 J42                     311.80500404     87.03412437 patron_J42                 ;
 J43                     312.12263955     78.25304535 patron_J43                 ;
 J44                     314.85267117    102.31383588 patron_J44                 ;
 J45                     312.76201719    89.173917994 patron_J45                 ;
 J46                     310.31193049    79.632023463 patron_J46                 ;
 J47                     312.69577692    102.36138685 patron_J47                 ;
 J48                     314.76001599    84.593174606 patron_J48                 ;
 J49                     312.81806487    102.10778168 patron_J49                 ;
 J50                     313.22143312    101.85417651 patron_J50                 ;

[RESERVOIRS]
;ID                                   Head                  Pattern

[TANKS]
;ID                              Elevation           Init Level            Min Level            Max Level             Diameter           Min Volume Volume Curve         Overflow            
 Estanque                 328.0839895    16.404199475     3.280839895     32.80839895     39.37007874               0                                             ;

[PIPES]
;ID                   Node1                Node2                              Length             Diameter            Roughness           Minor Loss               Status
 P_E_N1               Estanque             Nodo1                    98.42519685     5.905511811             100               0                 Open   ;
 P1                   Nodo1                J1                       196.8503937    2.9527559055             100               0                 Open   ;
 P2                   J1                   J2                       196.8503937    2.9527559055             100               0                 Open   ;
 P3                   J2                   J3                       196.8503937    2.9527559055             100               0                 Open   ;
 P4                   J3                   J4                       196.8503937    2.9527559055             100               0                 Open   ;
 P5                   J4                   J5                       196.8503937    2.9527559055             100               0                 Open   ;
 P6                   J5                   J6                       196.8503937    2.9527559055             100               0                 Open   ;
 P7                   J6                   J7                       196.8503937    2.9527559055             100               0                 Open   ;
 P8                   J7                   J8                       196.8503937    2.9527559055             100               0                 Open   ;
 P9                   J8                   J9                       196.8503937    2.9527559055             100               0                 Open   ;
 P10                  J9                   J10                      196.8503937    2.9527559055             100               0                 Open   ;
 P11                  Nodo1                J11                      196.8503937    2.9527559055             100               0                 Open   ;
 P12                  J11                  J12                      196.8503937    2.9527559055             100               0                 Open   ;
 P13                  J12                  J13                      196.8503937    2.9527559055             100               0                 Open   ;
 P14                  J13                  J14                      196.8503937    2.9527559055             100               0                 Open   ;
 P15                  J14                  J15                      196.8503937    2.9527559055             100               0                 Open   ;
 P16                  J15                  J16                      196.8503937    2.9527559055             100               0                 Open   ;
 P17                  J16                  J17                      196.8503937    2.9527559055             100               0                 Open   ;
 P18                  J17                  J18                      196.8503937    2.9527559055             100               0                 Open   ;
 P19                  J18                  J19                      196.8503937    2.9527559055             100               0                 Open   ;
 P20                  J19                  J20                      196.8503937    2.9527559055             100               0                 Open   ;
 P21                  Nodo1                J21                      196.8503937    2.9527559055             100               0                 Open   ;
 P22                  J21                  J22                      196.8503937    2.9527559055             100               0                 Open   ;
 P23                  J22                  J23                      196.8503937    2.9527559055             100               0                 Open   ;
 P24                  J23                  J24                      196.8503937    2.9527559055             100               0                 Open   ;
 P25                  J24                  J25                      196.8503937    2.9527559055             100               0                 Open   ;
 P26                  J25                  J26                      196.8503937    2.9527559055             100               0                 Open   ;
 P27                  J26                  J27                      196.8503937    2.9527559055             100               0                 Open   ;
 P28                  J27                  J28                      196.8503937    2.9527559055             100               0                 Open   ;
 P29                  J28                  J29                      196.8503937    2.9527559055             100               0                 Open   ;
 P30                  J29                  J30                      196.8503937    2.9527559055             100               0                 Open   ;
 P31                  Nodo1                J31                      196.8503937    2.9527559055             100               0                 Open   ;
 P32                  J31                  J32                      196.8503937    2.9527559055             100               0                 Open   ;
 P33                  J32                  J33                      196.8503937    2.9527559055             100               0                 Open   ;
 P34                  J33                  J34                      196.8503937    2.9527559055             100               0                 Open   ;
 P35                  J34                  J35                      196.8503937    2.9527559055             100               0                 Open   ;
 P36                  J35                  J36                      196.8503937    2.9527559055             100               0                 Open   ;
 P37                  J36                  J37                      196.8503937    2.9527559055             100               0                 Open   ;
 P38                  J37                  J38                      196.8503937    2.9527559055             100               0                 Open   ;
 P39                  J38                  J39                      196.8503937    2.9527559055             100               0                 Open   ;
 P40                  J39                  J40                      196.8503937    2.9527559055             100               0                 Open   ;
 P41                  Nodo1                J41                      196.8503937    2.9527559055             100               0                 Open   ;
 P42                  J41                  J42                      196.8503937    2.9527559055             100               0                 Open   ;
 P43                  J42                  J43                      196.8503937    2.9527559055             100               0                 Open   ;
 P44                  J43                  J44                      196.8503937    2.9527559055             100               0                 Open   ;
 P45                  J44                  J45                      196.8503937    2.9527559055             100               0                 Open   ;
 P46                  J45                  J46                      196.8503937    2.9527559055             100               0                 Open   ;
 P47                  J46                  J47                      196.8503937    2.9527559055             100               0                 Open   ;
 P48                  J47                  J48                      196.8503937    2.9527559055             100               0                 Open   ;
 P49                  J48                  J49                      196.8503937    2.9527559055             100               0                 Open   ;
 P50                  J49                  J50                      196.8503937    2.9527559055             100               0                 Open   ;

[PUMPS]
;ID                   Node1                Node2                Properties          
 B1                   Sondaje              Estanque             HEAD     curva_bomba            ;

[VALVES]
;ID                   Node1                Node2                            Diameter Type              Setting           Minor Loss

[TAGS]
;type      name       tag       

[DEMANDS]
;ID        Demand     Pattern   

[STATUS]
;ID        Setting   

[PATTERNS]
;ID        Multipliers

patron_J1 0.050000 0.049000 0.051000 0.051000 0.051000 0.271000
patron_J1 0.245000 0.419000 0.391000 0.372000 0.314000 0.274000
patron_J1 0.707000 0.768000 0.316000 0.303000 0.709000 0.635000
patron_J1 0.727000 0.151000 0.140000 0.151000 0.049000 0.045000

patron_J2 0.051000 0.046000 0.048000 0.049000 0.046000 0.227000
patron_J2 0.258000 0.434000 0.382000 0.388000 0.300000 0.322000
patron_J2 0.734000 0.763000 0.290000 0.276000 0.633000 0.650000
patron_J2 0.745000 0.154000 0.140000 0.139000 0.048000 0.053000

patron_J3 0.048000 0.046000 0.051000 0.046000 0.045000 0.233000
patron_J3 0.263000 0.389000 0.423000 0.391000 0.313000 0.311000
patron_J3 0.637000 0.676000 0.308000 0.322000 0.750000 0.749000
patron_J3 0.738000 0.156000 0.162000 0.155000 0.048000 0.051000

patron_J4 0.047000 0.051000 0.049000 0.049000 0.049000 0.252000
patron_J4 0.247000 0.380000 0.391000 0.439000 0.309000 0.315000
patron_J4 0.738000 0.694000 0.313000 0.276000 0.666000 0.637000
patron_J4 0.671000 0.135000 0.136000 0.149000 0.053000 0.053000

patron_J5 0.054000 0.054000 0.051000 0.054000 0.049000 0.237000
patron_J5 0.236000 0.413000 0.433000 0.389000 0.302000 0.302000
patron_J5 0.724000 0.660000 0.274000 0.307000 0.733000 0.669000
patron_J5 0.697000 0.145000 0.149000 0.139000 0.051000 0.050000

patron_J6 0.051000 0.049000 0.054000 0.045000 0.046000 0.238000
patron_J6 0.275000 0.403000 0.381000 0.435000 0.313000 0.301000
patron_J6 0.741000 0.670000 0.317000 0.274000 0.710000 0.762000
patron_J6 0.649000 0.149000 0.153000 0.163000 0.050000 0.051000

patron_J7 0.050000 0.050000 0.055000 0.053000 0.046000 0.245000
patron_J7 0.240000 0.415000 0.367000 0.438000 0.291000 0.311000
patron_J7 0.721000 0.749000 0.323000 0.287000 0.737000 0.719000
patron_J7 0.683000 0.152000 0.159000 0.152000 0.048000 0.047000

patron_J8 0.053000 0.049000 0.048000 0.054000 0.045000 0.260000
patron_J8 0.251000 0.387000 0.391000 0.398000 0.306000 0.292000
patron_J8 0.718000 0.725000 0.300000 0.293000 0.763000 0.751000
patron_J8 0.659000 0.137000 0.152000 0.146000 0.049000 0.054000

patron_J9 0.048000 0.053000 0.045000 0.046000 0.055000 0.260000
patron_J9 0.265000 0.403000 0.385000 0.367000 0.311000 0.276000
patron_J9 0.714000 0.743000 0.317000 0.314000 0.700000 0.727000
patron_J9 0.649000 0.153000 0.161000 0.159000 0.046000 0.053000

patron_J10 0.045000 0.046000 0.050000 0.052000 0.054000 0.244000
patron_J10 0.245000 0.418000 0.405000 0.372000 0.328000 0.318000
patron_J10 0.719000 0.762000 0.276000 0.329000 0.652000 0.707000
patron_J10 0.672000 0.156000 0.140000 0.143000 0.048000 0.052000

patron_J11 0.051000 0.047000 0.052000 0.047000 0.047000 0.272000
patron_J11 0.265000 0.437000 0.434000 0.376000 0.284000 0.307000
patron_J11 0.765000 0.637000 0.283000 0.315000 0.758000 0.761000
patron_J11 0.737000 0.136000 0.155000 0.161000 0.048000 0.052000

patron_J12 0.048000 0.047000 0.049000 0.048000 0.052000 0.242000
patron_J12 0.244000 0.380000 0.426000 0.412000 0.279000 0.326000
patron_J12 0.681000 0.710000 0.311000 0.321000 0.705000 0.732000
patron_J12 0.768000 0.136000 0.140000 0.135000 0.052000 0.046000

patron_J13 0.050000 0.047000 0.051000 0.051000 0.052000 0.258000
patron_J13 0.228000 0.401000 0.429000 0.431000 0.313000 0.315000
patron_J13 0.687000 0.654000 0.318000 0.289000 0.686000 0.641000
patron_J13 0.638000 0.165000 0.141000 0.164000 0.051000 0.053000

patron_J14 0.048000 0.054000 0.047000 0.050000 0.050000 0.237000
patron_J14 0.229000 0.406000 0.399000 0.409000 0.315000 0.318000
patron_J14 0.634000 0.747000 0.282000 0.296000 0.674000 0.758000
patron_J14 0.695000 0.141000 0.160000 0.146000 0.055000 0.047000

patron_J15 0.052000 0.050000 0.052000 0.054000 0.051000 0.260000
patron_J15 0.256000 0.409000 0.408000 0.393000 0.310000 0.293000
patron_J15 0.721000 0.758000 0.308000 0.308000 0.695000 0.677000
patron_J15 0.640000 0.164000 0.164000 0.162000 0.045000 0.046000

patron_J16 0.053000 0.054000 0.047000 0.045000 0.049000 0.260000
patron_J16 0.252000 0.412000 0.374000 0.401000 0.326000 0.304000
patron_J16 0.642000 0.722000 0.312000 0.322000 0.726000 0.686000
patron_J16 0.764000 0.162000 0.141000 0.164000 0.048000 0.055000

patron_J17 0.052000 0.048000 0.050000 0.051000 0.051000 0.250000
patron_J17 0.246000 0.399000 0.415000 0.382000 0.279000 0.277000
patron_J17 0.674000 0.734000 0.315000 0.321000 0.637000 0.767000
patron_J17 0.751000 0.161000 0.164000 0.149000 0.053000 0.048000

patron_J18 0.052000 0.049000 0.052000 0.053000 0.050000 0.267000
patron_J18 0.231000 0.375000 0.379000 0.433000 0.297000 0.298000
patron_J18 0.646000 0.725000 0.301000 0.311000 0.747000 0.649000
patron_J18 0.643000 0.138000 0.153000 0.153000 0.055000 0.048000

patron_J19 0.055000 0.053000 0.052000 0.049000 0.051000 0.265000
patron_J19 0.274000 0.404000 0.377000 0.435000 0.289000 0.322000
patron_J19 0.684000 0.684000 0.314000 0.275000 0.720000 0.634000
patron_J19 0.657000 0.156000 0.145000 0.137000 0.053000 0.045000

patron_J20 0.048000 0.052000 0.051000 0.052000 0.053000 0.229000
patron_J20 0.259000 0.411000 0.399000 0.392000 0.280000 0.274000
patron_J20 0.674000 0.652000 0.291000 0.297000 0.647000 0.688000
patron_J20 0.704000 0.139000 0.140000 0.143000 0.048000 0.047000

patron_J21 0.046000 0.046000 0.053000 0.048000 0.054000 0.245000
patron_J21 0.274000 0.368000 0.408000 0.373000 0.322000 0.328000
patron_J21 0.709000 0.650000 0.318000 0.328000 0.669000 0.681000
patron_J21 0.648000 0.157000 0.153000 0.146000 0.054000 0.048000

patron_J22 0.055000 0.046000 0.045000 0.054000 0.045000 0.234000
patron_J22 0.242000 0.407000 0.419000 0.424000 0.324000 0.316000
patron_J22 0.766000 0.710000 0.305000 0.322000 0.762000 0.735000
patron_J22 0.725000 0.147000 0.158000 0.142000 0.051000 0.048000

patron_J23 0.048000 0.052000 0.049000 0.047000 0.051000 0.254000
patron_J23 0.253000 0.430000 0.431000 0.431000 0.271000 0.293000
patron_J23 0.653000 0.669000 0.322000 0.307000 0.738000 0.650000
patron_J23 0.631000 0.160000 0.149000 0.139000 0.048000 0.055000

patron_J24 0.048000 0.052000 0.049000 0.047000 0.048000 0.245000
patron_J24 0.258000 0.387000 0.435000 0.435000 0.299000 0.314000
patron_J24 0.736000 0.702000 0.284000 0.297000 0.652000 0.656000
patron_J24 0.764000 0.137000 0.146000 0.165000 0.055000 0.054000

patron_J25 0.046000 0.046000 0.045000 0.051000 0.052000 0.226000
patron_J25 0.263000 0.377000 0.363000 0.406000 0.321000 0.301000
patron_J25 0.721000 0.708000 0.316000 0.290000 0.741000 0.641000
patron_J25 0.656000 0.145000 0.136000 0.162000 0.052000 0.048000

patron_J26 0.054000 0.051000 0.045000 0.050000 0.054000 0.266000
patron_J26 0.275000 0.419000 0.434000 0.432000 0.272000 0.317000
patron_J26 0.756000 0.637000 0.307000 0.321000 0.717000 0.755000
patron_J26 0.747000 0.156000 0.160000 0.145000 0.054000 0.048000

patron_J27 0.047000 0.052000 0.048000 0.046000 0.052000 0.243000
patron_J27 0.235000 0.408000 0.409000 0.395000 0.281000 0.312000
patron_J27 0.770000 0.645000 0.279000 0.279000 0.686000 0.745000
patron_J27 0.663000 0.164000 0.161000 0.137000 0.049000 0.046000

patron_J28 0.045000 0.046000 0.052000 0.053000 0.052000 0.259000
patron_J28 0.226000 0.406000 0.404000 0.425000 0.296000 0.273000
patron_J28 0.643000 0.680000 0.311000 0.275000 0.696000 0.659000
patron_J28 0.768000 0.153000 0.139000 0.140000 0.054000 0.045000

patron_J29 0.053000 0.045000 0.050000 0.049000 0.051000 0.254000
patron_J29 0.263000 0.366000 0.425000 0.367000 0.286000 0.300000
patron_J29 0.767000 0.715000 0.296000 0.292000 0.744000 0.663000
patron_J29 0.760000 0.152000 0.160000 0.152000 0.053000 0.055000

patron_J30 0.054000 0.055000 0.045000 0.053000 0.049000 0.253000
patron_J30 0.252000 0.360000 0.420000 0.419000 0.288000 0.326000
patron_J30 0.723000 0.640000 0.280000 0.313000 0.738000 0.768000
patron_J30 0.693000 0.144000 0.139000 0.150000 0.049000 0.053000

patron_J31 0.047000 0.051000 0.049000 0.054000 0.049000 0.239000
patron_J31 0.265000 0.393000 0.438000 0.383000 0.275000 0.315000
patron_J31 0.691000 0.685000 0.312000 0.296000 0.692000 0.652000
patron_J31 0.669000 0.143000 0.139000 0.161000 0.048000 0.054000

patron_J32 0.048000 0.052000 0.051000 0.053000 0.052000 0.268000
patron_J32 0.237000 0.416000 0.383000 0.394000 0.278000 0.284000
patron_J32 0.670000 0.729000 0.273000 0.278000 0.668000 0.758000
patron_J32 0.678000 0.155000 0.157000 0.153000 0.047000 0.046000

patron_J33 0.050000 0.046000 0.047000 0.049000 0.050000 0.247000
patron_J33 0.229000 0.409000 0.395000 0.394000 0.317000 0.324000
patron_J33 0.665000 0.701000 0.306000 0.295000 0.705000 0.637000
patron_J33 0.664000 0.158000 0.152000 0.139000 0.047000 0.047000

patron_J34 0.047000 0.051000 0.054000 0.047000 0.051000 0.228000
patron_J34 0.264000 0.386000 0.400000 0.404000 0.281000 0.330000
patron_J34 0.716000 0.764000 0.286000 0.329000 0.643000 0.680000
patron_J34 0.743000 0.142000 0.159000 0.145000 0.053000 0.053000

patron_J35 0.051000 0.049000 0.047000 0.049000 0.047000 0.242000
patron_J35 0.252000 0.388000 0.394000 0.430000 0.319000 0.297000
patron_J35 0.704000 0.693000 0.270000 0.309000 0.708000 0.666000
patron_J35 0.710000 0.157000 0.157000 0.158000 0.051000 0.053000

patron_J36 0.046000 0.052000 0.054000 0.053000 0.054000 0.262000
patron_J36 0.245000 0.365000 0.440000 0.431000 0.314000 0.319000
patron_J36 0.669000 0.741000 0.305000 0.287000 0.674000 0.715000
patron_J36 0.637000 0.161000 0.147000 0.158000 0.048000 0.053000

patron_J37 0.047000 0.053000 0.053000 0.051000 0.046000 0.231000
patron_J37 0.227000 0.398000 0.417000 0.411000 0.283000 0.272000
patron_J37 0.633000 0.644000 0.297000 0.309000 0.707000 0.681000
patron_J37 0.768000 0.149000 0.148000 0.153000 0.055000 0.055000

patron_J38 0.053000 0.052000 0.051000 0.048000 0.046000 0.231000
patron_J38 0.260000 0.417000 0.392000 0.373000 0.319000 0.282000
patron_J38 0.672000 0.769000 0.313000 0.330000 0.645000 0.692000
patron_J38 0.654000 0.137000 0.153000 0.164000 0.046000 0.052000

patron_J39 0.054000 0.052000 0.054000 0.050000 0.050000 0.251000
patron_J39 0.273000 0.360000 0.381000 0.437000 0.294000 0.323000
patron_J39 0.709000 0.656000 0.324000 0.303000 0.641000 0.660000
patron_J39 0.658000 0.143000 0.154000 0.149000 0.054000 0.046000

patron_J40 0.052000 0.049000 0.050000 0.048000 0.047000 0.235000
patron_J40 0.261000 0.435000 0.395000 0.432000 0.317000 0.290000
patron_J40 0.749000 0.657000 0.273000 0.324000 0.632000 0.688000
patron_J40 0.675000 0.151000 0.150000 0.156000 0.052000 0.048000

patron_J41 0.053000 0.048000 0.054000 0.046000 0.051000 0.264000
patron_J41 0.226000 0.407000 0.367000 0.376000 0.308000 0.286000
patron_J41 0.638000 0.757000 0.319000 0.298000 0.669000 0.687000
patron_J41 0.710000 0.138000 0.141000 0.159000 0.054000 0.048000

patron_J42 0.055000 0.047000 0.047000 0.046000 0.053000 0.271000
patron_J42 0.263000 0.409000 0.396000 0.413000 0.285000 0.325000
patron_J42 0.757000 0.706000 0.296000 0.310000 0.668000 0.691000
patron_J42 0.649000 0.141000 0.143000 0.147000 0.050000 0.046000

patron_J43 0.053000 0.054000 0.053000 0.050000 0.049000 0.239000
patron_J43 0.256000 0.364000 0.379000 0.403000 0.326000 0.276000
patron_J43 0.748000 0.724000 0.289000 0.276000 0.659000 0.686000
patron_J43 0.757000 0.142000 0.136000 0.150000 0.051000 0.046000

patron_J44 0.047000 0.050000 0.054000 0.045000 0.054000 0.247000
patron_J44 0.258000 0.396000 0.436000 0.372000 0.278000 0.322000
patron_J44 0.744000 0.737000 0.297000 0.321000 0.744000 0.765000
patron_J44 0.735000 0.157000 0.149000 0.151000 0.051000 0.051000

patron_J45 0.051000 0.046000 0.047000 0.054000 0.054000 0.230000
patron_J45 0.260000 0.418000 0.411000 0.372000 0.329000 0.271000
patron_J45 0.658000 0.654000 0.317000 0.312000 0.638000 0.719000
patron_J45 0.634000 0.150000 0.150000 0.152000 0.052000 0.050000

patron_J46 0.054000 0.054000 0.049000 0.049000 0.052000 0.237000
patron_J46 0.252000 0.439000 0.433000 0.440000 0.270000 0.328000
patron_J46 0.741000 0.632000 0.275000 0.311000 0.683000 0.705000
patron_J46 0.749000 0.161000 0.144000 0.141000 0.051000 0.054000

patron_J47 0.048000 0.046000 0.055000 0.048000 0.045000 0.257000
patron_J47 0.272000 0.384000 0.428000 0.435000 0.273000 0.280000
patron_J47 0.679000 0.680000 0.281000 0.302000 0.756000 0.722000
patron_J47 0.652000 0.153000 0.149000 0.142000 0.054000 0.054000

patron_J48 0.048000 0.052000 0.047000 0.047000 0.053000 0.249000
patron_J48 0.271000 0.395000 0.437000 0.402000 0.294000 0.328000
patron_J48 0.648000 0.770000 0.282000 0.289000 0.762000 0.746000
patron_J48 0.744000 0.148000 0.151000 0.155000 0.048000 0.054000

patron_J49 0.053000 0.052000 0.049000 0.046000 0.048000 0.260000
patron_J49 0.233000 0.440000 0.400000 0.372000 0.321000 0.328000
patron_J49 0.630000 0.682000 0.322000 0.312000 0.660000 0.645000
patron_J49 0.767000 0.152000 0.136000 0.136000 0.048000 0.049000

patron_J50 0.047000 0.055000 0.051000 0.049000 0.046000 0.257000
patron_J50 0.265000 0.423000 0.410000 0.384000 0.284000 0.318000
patron_J50 0.724000 0.763000 0.302000 0.284000 0.687000 0.754000
patron_J50 0.688000 0.160000 0.151000 0.161000 0.046000 0.052000

[CURVES]
;ID         X-Value      Y-Value     
;PUMP: curva_bomba
 curva_bomba     0.000000    82.020997   ;
 curva_bomba 158503.231415    82.020997   ;


[CONTROLS]

[RULES]

[ENERGY]
GLOBAL PRICE           0.0000

[EMITTERS]
;ID        Flow coefficient

[QUALITY]

[SOURCES]
;Node      Type       Quality    Pattern   

[REACTIONS]
;Type           Pipe/Tank               Coefficient

 ORDER BULK 1
 ORDER TANK 1
 ORDER WALL 1
 GLOBAL BULK 0.0000    
 GLOBAL WALL 0.0000    

[MIXING]
;Tank ID             Model Fraction

[TIMES]
DURATION             168:00:00
HYDRAULIC TIMESTEP   00:15:00
QUALITY TIMESTEP     00:06:00
PATTERN TIMESTEP     01:00:00
PATTERN START        00:00:00
REPORT TIMESTEP      00:15:00
REPORT START         00:00:00
START CLOCKTIME      00:00:00 AM
RULE TIMESTEP        00:06:00
STATISTIC            NONE      

[REPORT]

[OPTIONS]
UNITS                GPM                 
HEADLOSS             H-W                 
SPECIFIC GRAVITY     1
VISCOSITY            1
TRIALS               200
ACCURACY             0.001
CHECKFREQ            2
MAXCHECK             10
UNBALANCED           STOP                
DEMAND MULTIPLIER    1
EMITTER EXPONENT     0.5
QUALITY              NONE                
DIFFUSIVITY          1
TOLERANCE            0.01

[COORDINATES]
;Node      X-Coord    Y-Coord   
Sondaje             0.000000000        300.000000000
Nodo1               0.000000000        100.000000000
J1               -208.165305884         65.156994245
J2               -216.932239863         30.798234999
J3               -217.613932819          1.923976493
J4               -214.061571724        -25.960185019
J5               -214.221757680        -57.931483471
J6               -207.562980052        -90.034018918
J7               -203.426000948       -123.817231586
J8               -210.276269216       -158.226928381
J9               -212.518247760       -193.115203593
J10              -220.811147858       -227.258353392
J11              -108.163010087         74.214639167
J12               -98.586784437         41.190363117
J13               -99.860863930         11.727641788
J14              -101.093246089        -18.687242355
J15               -93.421621779        -51.554921753
J16               -92.589611491        -81.874995301
J17               -83.594800362       -111.444788179
J18               -88.337778755       -136.845466731
J19               -94.760824786       -168.821739105
J20               -90.685768500       -203.483987353
J21                -7.117369174         69.114353913
J22                 2.611442925         40.239003656
J23                 5.685251752         10.249511328
J24                 7.960568895        -24.615748592
J25                10.865516722        -51.442947580
J26                11.212542820        -82.596974217
J27                 4.290276755       -113.229667848
J28                -1.229087079       -146.921263895
J29                -6.422724905       -177.740306479
J30                -8.991459178       -209.124900530
J31               104.446298630         69.455576913
J32                99.245353125         39.570570060
J33                99.242097506          7.703212411
J34                93.754474465        -18.287624170
J35                91.043121815        -51.149991184
J36               100.825317403        -78.914855813
J37                96.380982635       -108.000889668
J38                89.955815677       -142.277754203
J39                95.376492771       -167.318988009
J40               102.795783241       -200.304853352