; Filename: epanet_sim/modelos/red_apr_estructurada.inp
; WNTR: 1.3.2
; Created: 2025-04-14 01:24:34
[TITLE]

[JUNCTIONS]
;ID                      Elevation       Demand Pattern                 
 Sondaje                 295.27559055               0                            ;
 Nodo1                   344.48818898               0                            ;
 J1                      329.78018373    102.55159073 PATRON_HORARIO             ;
 J2                       334.4324147    105.72165535 PATRON_HORARIO             ;
 J3                      342.83792651    74.655021996 PATRON_HORARIO             ;
 J4                      315.90223097    77.825086625 PATRON_HORARIO             ;
 J5                      331.05643045    83.689706187 PATRON_HORARIO             ;
 J6                      326.99146982    83.372699724 PATRON_HORARIO             ;
 J7                      318.01181102    94.309422692 PATRON_HORARIO             ;
 J8                      342.79855643    100.01553902 PATRON_HORARIO             ;
 J9                      322.06692913    97.162480857 PATRON_HORARIO             ;
 J10                     328.46456693    92.724390378 PATRON_HORARIO             ;
 J11                     342.39173228    87.018274047 PATRON_HORARIO             ;
 J12                     314.84580052    84.957732038 PATRON_HORARIO             ;
 J13                     331.41732283    92.248880683 PATRON_HORARIO             ;
 J14                      338.2316273    73.704002608 PATRON_HORARIO             ;
 J15                     316.18766404    88.127796667 PATRON_HORARIO             ;
 J16                     337.29658793    82.104673873 PATRON_HORARIO             ;
 J17                     321.67979003    98.747513171 PATRON_HORARIO             ;
 J18                     332.55905512    90.029835444 PATRON_HORARIO             ;
 J19                     330.97769029    106.35566828 PATRON_HORARIO             ;
 J20                     313.53674541    76.557060773 PATRON_HORARIO             ;
 J21                     341.74868766    79.727125402 PATRON_HORARIO             ;
 J22                      314.2191601    97.796493783 PATRON_HORARIO             ;
 J23                     313.34973753    92.407383915 PATRON_HORARIO             ;
 J24                     343.15288714    106.35566828 PATRON_HORARIO             ;
 J25                     320.58070866    96.845474394 PATRON_HORARIO             ;
 J26                     332.38845144    102.07608103 PATRON_HORARIO             ;
 J27                      326.2664042    106.98968121 PATRON_HORARIO             ;
 J28                     335.19028871    79.251615707 PATRON_HORARIO             ;
 J29                     339.97703412    84.165215881 PATRON_HORARIO             ;
 J30                     324.15682415     86.22575789 PATRON_HORARIO             ;
 J31                     336.77493438    86.542764353 PATRON_HORARIO             ;
 J32                     325.15748031    83.214196493 PATRON_HORARIO             ;
 J33                     329.36351706    100.80805518 PATRON_HORARIO             ;
 J34                     328.74671916    101.12506164 PATRON_HORARIO             ;
 J35                     327.04724409    107.14818444 PATRON_HORARIO             ;
 J36                     341.71587927    87.652286972 PATRON_HORARIO             ;
 J37                     336.82414698    106.67267474 PATRON_HORARIO             ;
 J38                     320.38057743    91.931874221 PATRON_HORARIO             ;
 J39                     311.84055118    103.81961658 PATRON_HORARIO             ;
 J40                     336.94553806    82.104673873 PATRON_HORARIO             ;
 J41                     336.87664042    90.980854832 PATRON_HORARIO             ;
 J42                     338.14632546    87.176777278 PATRON_HORARIO             ;
 J43                     330.68897638    108.09920382 PATRON_HORARIO             ;
 J44                     343.13976378    88.920312824 PATRON_HORARIO             ;
 J45                     313.85170604     94.15091946 PATRON_HORARIO             ;
 J46                     340.59055118    74.338015534 PATRON_HORARIO             ;
 J47                     343.95013123    103.02710042 PATRON_HORARIO             ;
 J48                     340.84973753    107.94070059 PATRON_HORARIO             ;
 J49                      333.1167979    74.813525228 PATRON_HORARIO             ;
 J50                     336.09251969    92.565887146 PATRON_HORARIO             ;

[RESERVOIRS]
;ID                                   Head                  Pattern

[TANKS]
;ID                              Elevation           Init Level            Min Level            Max Level             Diameter           Min Volume Volume Curve         Overflow            
 Estanque                377.29658793     32.80839895    16.404199475    49.212598425     39.37007874               0                                             ;

[PIPES]
;ID                   Node1                Node2                              Length             Diameter            Roughness           Minor Loss               Status
 P_E_N1               Estanque             Nodo1                    98.42519685     5.905511811             100               0                 Open   ;
 P1                   Nodo1                J1                       196.8503937    2.9527559055             100               0                 Open   ;
 P2                   J1                   J2                       196.8503937    2.9527559055             100               0                 Open   ;
 P3                   J2                   J3                       196.8503937    2.9527559055             100               0                 Open   ;
 P4                   J3                   J4                       196.8503937    2.9527559055             100               0                 Open   ;
 P5                   J4                   J5                       196.8503937    2.9527559055             100               0                 Open   ;
 P6                   J5                   J6                       196.8503937    2.9527559055             100               0                 Open   ;
 P7                   J6                   J7                       196.8503937    2.9527559055             100               0                 Open   ;
 P8                   J7                   J8                       196.8503937    2.9527559055             100               0                 Open   ;
 P9                   J8                   J9                       196.8503937    2.9527559055             100               0                 Open   ;
 P10                  J9                   J10                      196.8503937    2.9527559055             100               0                 Open   ;
 P11                  Nodo1                J11                      196.8503937    2.9527559055             100               0                 Open   ;
 P12                  J11                  J12                      196.8503937    2.9527559055             100               0                 Open   ;
 P13                  J12                  J13                      196.8503937    2.9527559055             100               0                 Open   ;
 P14                  J13                  J14                      196.8503937    2.9527559055             100               0                 Open   ;
 P15                  J14                  J15                      196.8503937    2.9527559055             100               0                 Open   ;
 P16                  J15                  J16                      196.8503937    2.9527559055             100               0                 Open   ;
 P17                  J16                  J17                      196.8503937    2.9527559055             100               0                 Open   ;
 P18                  J17                  J18                      196.8503937    2.9527559055             100               0                 Open   ;
 P19                  J18                  J19                      196.8503937    2.9527559055             100               0                 Open   ;
 P20                  J19                  J20                      196.8503937    2.9527559055             100               0                 Open   ;
 P21                  Nodo1                J21                      196.8503937    2.9527559055             100               0                 Open   ;
 P22                  J21                  J22                      196.8503937    2.9527559055             100               0                 Open   ;
 P23                  J22                  J23                      196.8503937    2.9527559055             100               0                 Open   ;
 P24                  J23                  J24                      196.8503937    2.9527559055             100               0                 Open   ;
 P25                  J24                  J25                      196.8503937    2.9527559055             100               0                 Open   ;
 P26                  J25                  J26                      196.8503937    2.9527559055             100               0                 Open   ;
 P27                  J26                  J27                      196.8503937    2.9527559055             100               0                 Open   ;
 P28                  J27                  J28                      196.8503937    2.9527559055             100               0                 Open   ;
 P29                  J28                  J29                      196.8503937    2.9527559055             100               0                 Open   ;
 P30                  J29                  J30                      196.8503937    2.9527559055             100               0                 Open   ;
 P31                  Nodo1                J31                      196.8503937    2.9527559055             100               0                 Open   ;
 P32                  J31                  J32                      196.8503937    2.9527559055             100               0                 Open   ;
 P33                  J32                  J33                      196.8503937    2.9527559055             100               0                 Open   ;
 P34                  J33                  J34                      196.8503937    2.9527559055             100               0                 Open   ;
 P35                  J34                  J35                      196.8503937    2.9527559055             100               0                 Open   ;
 P36                  J35                  J36                      196.8503937    2.9527559055             100               0                 Open   ;
 P37                  J36                  J37                      196.8503937    2.9527559055             100               0                 Open   ;
 P38                  J37                  J38                      196.8503937    2.9527559055             100               0                 Open   ;
 P39                  J38                  J39                      196.8503937    2.9527559055             100               0                 Open   ;
 P40                  J39                  J40                      196.8503937    2.9527559055             100               0                 Open   ;
 P41                  Nodo1                J41                      196.8503937    2.9527559055             100               0                 Open   ;
 P42                  J41                  J42                      196.8503937    2.9527559055             100               0                 Open   ;
 P43                  J42                  J43                      196.8503937    2.9527559055             100               0                 Open   ;
 P44                  J43                  J44                      196.8503937    2.9527559055             100               0                 Open   ;
 P45                  J44                  J45                      196.8503937    2.9527559055             100               0                 Open   ;
 P46                  J45                  J46                      196.8503937    2.9527559055             100               0                 Open   ;
 P47                  J46                  J47                      196.8503937    2.9527559055             100               0                 Open   ;
 P48                  J47                  J48                      196.8503937    2.9527559055             100               0                 Open   ;
 P49                  J48                  J49                      196.8503937    2.9527559055             100               0                 Open   ;
 P50                  J49                  J50                      196.8503937    2.9527559055             100               0                 Open   ;

[PUMPS]
;ID                   Node1                Node2                Properties          
 B1                   Sondaje              Estanque             HEAD     curva_bomba            ;

[VALVES]
;ID                   Node1                Node2                            Diameter Type              Setting           Minor Loss

[TAGS]
;type      name       tag       

[DEMANDS]
;ID        Demand     Pattern   

[STATUS]
;ID        Setting   

[PATTERNS]
;ID        Multipliers

PATRON_HORARIO 0.300000 0.300000 0.300000 0.300000 0.300000 0.300000
PATRON_HORARIO 0.300000 0.300000 0.300000 0.300000 0.300000 0.300000
PATRON_HORARIO 0.300000 0.300000 0.300000 0.300000 0.300000 0.300000
PATRON_HORARIO 0.300000 0.300000 0.800000 0.800000 0.800000 0.800000
PATRON_HORARIO 1.500000 1.500000 1.500000 1.500000 1.500000 1.500000
PATRON_HORARIO 1.500000 1.500000 1.500000 1.500000 1.500000 1.500000
PATRON_HORARIO 0.800000 0.800000 0.800000 0.800000 0.800000 0.800000
PATRON_HORARIO 0.800000 0.800000 0.800000 0.800000 0.800000 0.800000
PATRON_HORARIO 1.200000 1.200000 1.200000 1.200000 1.200000 1.200000
PATRON_HORARIO 1.200000 1.200000 0.800000 0.800000 0.800000 0.800000
PATRON_HORARIO 0.800000 0.800000 0.800000 0.800000 0.800000 0.800000
PATRON_HORARIO 0.800000 0.800000 0.800000 0.800000 0.800000 0.800000
PATRON_HORARIO 0.800000 0.800000 0.800000 0.800000 0.800000 0.800000
PATRON_HORARIO 0.800000 0.800000 1.400000 1.400000 1.400000 1.400000
PATRON_HORARIO 1.400000 1.400000 1.400000 1.400000 1.400000 1.400000
PATRON_HORARIO 1.400000 1.400000 0.800000 0.800000 0.800000 0.800000

[CURVES]
;ID         X-Value      Y-Value     
;PUMP: curva_bomba
 curva_bomba     0.000000    82.020997   ;
 curva_bomba 158503.231415    82.020997   ;


[CONTROLS]

[RULES]

[ENERGY]
GLOBAL PRICE           0.0000

[EMITTERS]
;ID        Flow coefficient

[QUALITY]

[SOURCES]
;Node      Type       Quality    Pattern   

[REACTIONS]
;Type           Pipe/Tank               Coefficient

 ORDER BULK 1
 ORDER TANK 1
 ORDER WALL 1
 GLOBAL BULK 0.0000    
 GLOBAL WALL 0.0000    

[MIXING]
;Tank ID             Model Fraction

[TIMES]
DURATION             168:00:00
HYDRAULIC TIMESTEP   00:15:00
QUALITY TIMESTEP     00:06:00
PATTERN TIMESTEP     01:00:00
PATTERN START        00:00:00
REPORT TIMESTEP      00:15:00
REPORT START         00:00:00
START CLOCKTIME      00:00:00 AM
RULE TIMESTEP        00:06:00
STATISTIC            NONE      

[REPORT]

[OPTIONS]
UNITS                GPM                 
HEADLOSS             H-W                 
SPECIFIC GRAVITY     1
VISCOSITY            1
TRIALS               200
ACCURACY             0.001
CHECKFREQ            2
MAXCHECK             10
UNBALANCED           STOP                
DEMAND MULTIPLIER    1
EMITTER EXPONENT     0.5
QUALITY              NONE                
DIFFUSIVITY          1
TOLERANCE            0.01

[COORDINATES]
;Node      X-Coord    Y-Coord   
Sondaje             0.000000000        300.000000000
Nodo1               0.000000000        100.000000000
J1               -209.225337947         65.377272421
J2               -209.040784876         38.830496900
J3               -199.049688339         11.126056130
J4               -189.288089495        -17.100243399
J5               -180.606357129        -43.849828533
J6               -183.427176362        -72.767902334
J7               -188.329543586       -105.370570890
J8               -182.254238842       -135.876444065
J9               -177.260220266       -162.979454098
J10              -169.076295447       -190.652897931
J11               -92.419980032         72.640224745
J12               -87.259781716         37.800853595
J13               -96.651339046          5.142575515
J14              -105.774070672        -23.599390974
J15               -98.853656837        -49.353667587
J16              -103.308105709        -82.428649453
J17               -94.494626491       -116.571482967
J18               -98.074122679       -148.084995529
J19               -92.158807329       -173.166180459
J20               -95.760184039       -205.717945706
J21                 4.326728889         65.951627952
J22                 4.444281220         40.412419518
J23                12.750437522          9.668792992
J24                 3.522633402        -19.596956259
J25                 4.974401246        -48.985842356
J26                 6.530909129        -76.429971489
J27                 2.670242684       -103.380150961
J28                11.856703017       -134.263887620
J29                18.375360851       -166.751436855
J30                16.480552289       -193.452388938
J31               104.805859360         69.187647241
J32               111.533851017         39.855993832
J33               102.009511405         13.206363385
J34               103.399009242        -18.615456530
J35                93.533899193        -52.370153178
J36                94.314584781        -86.344959496
J37                89.853844598       -120.717582186
J38                81.002933111       -148.525793077
J39                85.447978434       -176.888948861
J40                92.765128350       -207.959622750
J41               191.830469547         74.684603743
J42               189.484117776         47.571486596
J43               181.973071925         16.530120230
J44               183.144725976         -8.772027682
J45               187.124604822        -35.179640647
J46               191.653234124        -67.041637782
J47               183.844040929        -96.675110657
J48               186.313907563       -122.737673969
J49               185.083971460       -157.001601289
J50               181.603306062       -185.897556024
Estanque            0.000000000        200.000000000

[VERTICES]
;Link      X-Coord    Y-Coord   

[LABELS]

[BACKDROP]
UNITS    NONE

[END]
