[TITLE]


[JUNCTIONS]
;ID              	Elev        	Demand      	Pattern         
 2               	1166.10     	0           	                	;
 3               	1145.00     	0           	                	;
 4               	1145.00     	0           	                	;
 5               	1108.49     	0.094       	                	;
 6               	1128.08     	0.031       	                	;
 7               	1112.37     	0.094       	                	;
 8               	1104.08     	0.031       	                	;
 9               	1104.08     	0           	                	;
 10              	1086.73     	0.094       	                	;
 11              	1081.46     	0.063       	                	;
 12              	1086.23     	0.094       	                	;
 13              	1049.88     	0           	                	;
 14              	1064.20     	0.157       	                	;
 15              	1086.85     	0.314       	                	;
 18              	1063.01     	0.063       	                	;
 19              	1085.49     	0.565       	                	;
 24              	1050.02     	0.188       	                	;
 25              	1050.02     	0           	                	;
 26              	1019.62     	0.063       	                	;
 27              	1017.95     	0.094       	                	;
 28              	1019.62     	0           	                	;
 29              	1023.12     	0.188       	                	;
 30              	995.00      	0           	                	;
 31              	995.00      	0.157       	                	;
 32              	944.07      	0.094       	                	;
 33              	951.16      	0.094       	                	;
 34              	963.68      	0.126       	                	;
 35              	943.78      	0.157       	                	;
 36              	940.03      	0.063       	                	;
 37              	946.13      	0.157       	                	;
 38              	946.13      	0.126       	                	;
 39              	947.03      	0.220       	                	;
 40              	946.38      	0.251       	                	;
 41              	954.20      	0.031       	                	;
 42              	963.15      	0.126       	                	;
 43              	966.15      	0.251       	                	;
 45              	1109.00     	0.157       	                	;
 47              	1091.64     	0.126       	                	;
 48              	1045.72     	0.126       	                	;
 49              	1045.72     	0           	                	;
 50              	1002.52     	0.188       	                	;
 51              	991.49      	0.126       	                	;
 52              	991.51      	0.031       	                	;
 54              	1047.67     	0.063       	                	;
 55              	1064.62     	0.094       	                	;
 56              	1053.53     	0.157       	                	;
 58              	1095.64     	0.094       	                	;
 59              	1121.57     	0.126       	                	;
 60              	1110.00     	0.031       	                	;
 61              	1137.48     	0.220       	                	;
 62              	1135.81     	0.094       	                	;
 63              	1166.10     	0.001       	                	;
 64              	1122.16     	0.063       	                	;
 65              	1091.64     	0           	                	;
 66              	1002.52     	0           	                	;
 67              	991.49      	0           	                	;
 68              	1020.30     	0           	                	;
 69              	1108.49     	0           	                	;
 70              	1109.00     	0           	                	;
 71              	1095.64     	0           	                	;
 72              	1110.00     	0           	                	;
 73              	1122.16     	0           	                	;
 74              	1168.68     	0.157       	                	;
 75              	1185.05     	0.063       	                	;
 76              	1072.00     	0           	                	;
 77              	1058.12     	0           	                	;
 78              	1059.00     	0           	                	;
 79              	1072.00     	0           	                	;
 80              	1072.00     	0           	                	;
 81              	1058.12     	0           	                	;
 82              	1059.00     	0           	                	;
 83              	1072.00     	0           	                	;

[RESERVOIRS]
;ID              	Head        	Pattern         

[TANKS]
;ID              	Elevation   	InitLevel   	MinLevel    	MaxLevel    	Diameter    	MinVol      	VolCurve        	Overflow
 1               	1204.99     	0.01        	0           	20          	50          	0           	                	;

[PIPES]
;ID              	Node1           	Node2           	Length      	Diameter    	Roughness   	MinorLoss   	Status
 1               	1               	2               	117         	96.8        	140         	0           	Open  	;
 2               	2               	3               	93          	96.8        	140         	0           	Open  	;
 27              	5               	76              	161         	66          	140         	0           	Open  	;
 28              	45              	47              	469         	66          	140         	0           	Open  	;
 65              	65              	48              	518         	66          	140         	0           	Open  	;
 70              	54              	55              	337         	66          	140         	0           	Open  	;
 71              	55              	56              	437         	66          	140         	0           	Open  	;
 29              	47              	58              	24          	66          	140         	0           	Open  	;
 30              	58              	59              	538         	66          	140         	0           	Open  	;
 31              	58              	60              	114         	66          	140         	0           	Open  	;
 33              	64              	61              	425         	66          	140         	0           	Open  	;
 34              	64              	62              	377         	66          	140         	0           	Open  	;
 74              	49              	50              	310         	66          	140         	0           	Open  	;
 75              	50              	51              	271         	66          	140         	0           	Open  	;
 76              	51              	52              	163         	66          	140         	0           	Open  	;
 23              	4               	5               	298         	66          	140         	0           	Open  	;
 24              	5               	6               	406         	66          	140         	0           	Open  	;
 25              	5               	7               	289         	66          	140         	0           	Open  	;
 26              	7               	8               	221         	66          	140         	0           	Open  	;
 36              	9               	10              	374         	96.8        	140         	0           	Open  	;
 37              	10              	11              	158         	66          	140         	0           	Open  	;
 38              	11              	12              	64          	66          	140         	0           	Open  	;
 39              	11              	13              	293         	66          	140         	0           	Open  	;
 40              	13              	14              	388         	66          	140         	0           	Open  	;
 41              	14              	15              	348         	66          	140         	0           	Open  	;
 42              	14              	18              	46          	66          	140         	0           	Open  	;
 43              	18              	19              	392         	66          	140         	0           	Open  	;
 44              	18              	24              	471         	66          	140         	0           	Open  	;
 46              	25              	26              	453         	66          	140         	0           	Open  	;
 47              	26              	27              	380         	66          	140         	0           	Open  	;
 48              	26              	28              	7           	66          	140         	0           	Open  	;
 49              	28              	29              	211         	66          	140         	0           	Open  	;
 50              	28              	30              	51          	66          	140         	0           	Open  	;
 52              	31              	32              	565         	66          	140         	0           	Open  	;
 53              	32              	33              	406         	66          	140         	0           	Open  	;
 54              	33              	34              	560         	66          	140         	0           	Open  	;
 55              	32              	35              	53          	66          	140         	0           	Open  	;
 56              	35              	36              	217         	66          	140         	0           	Open  	;
 57              	35              	37              	202         	66          	140         	0           	Open  	;
 58              	37              	38              	9           	77.92       	110         	0           	Open  	;
 59              	38              	39              	81          	66          	140         	0           	Open  	;
 60              	39              	40              	160         	66          	140         	0           	Open  	;
 61              	40              	41              	178         	66          	140         	0           	Open  	;
 62              	39              	42              	315         	66          	140         	0           	Open  	;
 63              	42              	43              	276         	66          	140         	0           	Open  	;
 77              	2               	63              	10          	66          	140         	0           	Open  	;
 32              	60              	64              	114         	66          	140         	0           	Open  	;
 66              	48              	66              	292         	61.4        	140         	0           	Open  	;
 67              	66              	67              	292         	61.4        	140         	0           	Open  	;
 68              	67              	68              	100         	61.4        	140         	0           	Open  	;
 69              	68              	54              	359         	66          	140         	0           	Open  	;
 78              	3               	69              	298         	61.4        	140         	0           	Open  	;
 79              	69              	80              	161         	61.4        	140         	0           	Open  	;
 80              	70              	71              	469         	61.4        	140         	0           	Open  	;
 81              	71              	72              	114         	61.4        	140         	0           	Open  	;
 82              	72              	73              	114         	61.4        	140         	0           	Open  	;
 83              	73              	74              	378         	66          	140         	0           	Open  	;
 84              	74              	75              	93          	66          	140         	0           	Open  	;
 85              	80              	81              	100         	61.4        	140         	0           	Open  	;
 86              	81              	82              	25          	77.92       	110         	0           	Open  	;
 87              	82              	83              	100         	61.4        	140         	0           	Open  	;
 88              	83              	70              	100         	61.4        	140         	0           	Open  	;
 89              	76              	77              	39          	61.4        	140         	0           	Open  	;
 90              	77              	78              	25          	77.92       	140         	0           	Open  	;
 91              	78              	79              	41          	61.4        	140         	0           	Open  	;
 92              	79              	45              	159         	66          	140         	0           	Open  	;

[PUMPS]
;ID              	Node1           	Node2           	Parameters

[VALVES]
;ID              	Node1           	Node2           	Diameter    	Type	Setting     	MinorLoss   
 73_CRP6         	48              	49              	66          	PRV 	15          	0           	;
 22_CRP1         	3               	4               	66          	PRV 	25          	0           	;
 35_CRP2         	8               	9               	66          	PRV 	20          	0           	;
 45_CRP3         	24              	25              	66          	PRV 	15          	0           	;
 51_CRP4         	30              	31              	66          	PRV 	15          	0           	;
 64_CRP5         	47              	65              	66          	PRV 	15          	0           	;

[TAGS]

[DEMANDS]
;Junction        	Demand      	Pattern         	Category

[STATUS]
;ID              	Status/Setting

[PATTERNS]
;ID              	Multipliers

[CURVES]
;ID              	X-Value     	Y-Value

[CONTROLS]

[RULES]

[ENERGY]
 Global Efficiency  	75
 Global Price       	0
 Demand Charge      	0

[EMITTERS]
;Junction        	Coefficient

[QUALITY]
;Node            	InitQual

[SOURCES]
;Node            	Type        	Quality     	Pattern

[REACTIONS]
;Type     	Pipe/Tank       	Coefficient


[REACTIONS]
 Order Bulk            	1
 Order Tank            	1
 Order Wall            	1
 Global Bulk           	0
 Global Wall           	0
 Limiting Potential    	0
 Roughness Correlation 	0

[MIXING]
;Tank            	Model

[TIMES]
 Duration           	0
 Hydraulic Timestep 	1:00
 Quality Timestep   	0:05
 Pattern Timestep   	1:00
 Pattern Start      	0:00
 Report Timestep    	1:00
 Report Start       	0:00
 Start ClockTime    	12 am
 Statistic          	None

[REPORT]
 Status             	No
 Summary            	No
 Page               	0

[OPTIONS]
 Units              	LPS
 Headloss           	H-W
 Specific Gravity   	1
 Viscosity          	1
 Trials             	40
 Accuracy           	0.001
 CHECKFREQ          	2
 MAXCHECK           	10
 DAMPLIMIT          	0
 Unbalanced         	Continue 10
 Pattern            	1
 Demand Multiplier  	1
 Emitter Exponent   	0.5
 Quality            	None mg/L
 Diffusivity        	1
 Tolerance          	0.01

[COORDINATES]
;Node            	X-Coord           	Y-Coord
2               	3784.252          	9351.755          
3               	3972.786          	9267.961          
4               	4070.545          	9257.487          
5               	4164.812          	8559.211          
6               	3183.735          	8559.211          
7               	3885.502          	7801.582          
8               	3784.252          	7246.453          
9               	3745.847          	7120.763          
10              	3386.235          	6233.953          
11              	3089.468          	5982.574          
12              	3012.657          	6153.651          
13              	2555.287          	5713.738          
14              	2275.976          	5102.746          
15              	1993.175          	5965.117          
18              	2321.364          	5001.496          
19              	1357.744          	5490.289          
24              	3068.519          	4016.927          
25              	3183.735          	3894.729          
26              	3766.795          	2903.178          
27              	3190.718          	2609.902          
28              	3798.217          	2920.634          
29              	4290.502          	3119.643          
30              	3724.964          	2366.895          
31              	3474.304          	2303.203          
32              	3578.261          	1251.755          
33              	2632.097          	1876.712          
34              	2146.795          	3311.669          
35              	3686.493          	1147.014          
36              	4122.916          	766.454           
37              	4119.424          	1482.186          
38              	4192.743          	1517.100          
39              	4363.821          	1524.083          
40              	4388.261          	1098.135          
41              	4517.442          	644.255           
42              	4810.717          	2159.514          
43              	4891.019          	2927.617          
45              	5222.700          	8234.513          
47              	5575.329          	7026.496          
48              	5561.364          	5682.315          
49              	5488.045          	5570.591          
50              	5124.941          	4984.039          
51              	5110.976          	4240.376          
52              	4999.252          	3800.462          
54              	5467.097          	3552.574          
55              	6210.760          	3091.712          
56              	5316.967          	2389.945          
58              	5645.157          	7012.531          
59              	6614.306          	7406.176          
60              	5821.097          	7308.173          
61              	5575.329          	8660.461          
62              	6036.511          	7823.889          
63              	3850.588          	9449.513          
64              	5918.950          	7583.766          
65              	5555.201          	6891.595          
66              	5220.743          	5000.269          
67              	5204.396          	4207.959          
68              	5417.220          	4093.124          
69              	4215.581          	8579.275          
70              	5266.117          	8229.096          
71              	5621.299          	7055.997          
72              	5788.884          	7313.628          
73              	5911.447          	7656.303          
74              	6256.623          	8549.259          
75              	6484.239          	8799.387          
76              	4413.485          	8390.971          
77              	4569.741          	8311.197          
78              	4693.699          	8262.559          
79              	5022.909          	8218.615          
80              	4364.224          	8482.209          
81              	4592.660          	8359.205          
82              	4720.057          	8319.668          
83              	5020.472          	8269.779          
1               	3560.804          	9568.220          

[VERTICES]
;Link            	X-Coord           	Y-Coord
27              	4190.342          	8544.119          
27              	4237.798          	8515.334          
27              	4265.193          	8496.362          
27              	4299.303          	8476.871          
28              	5268.058          	7951.776          
28              	5289.605          	7795.556          
28              	5281.525          	7631.256          
28              	5278.832          	7607.015          
28              	5303.073          	7577.387          
28              	5394.650          	7448.102          
28              	5445.825          	7367.299          
28              	5483.533          	7202.999          
28              	5561.643          	7149.130          
28              	5585.884          	7068.327          
65              	5556.256          	6890.560          
65              	5577.804          	6858.238          
65              	5561.643          	6804.370          
65              	5534.709          	6718.179          
65              	5513.161          	6570.040          
65              	5510.468          	6524.252          
65              	5451.212          	6392.273          
65              	5413.504          	6209.119          
65              	5429.664          	6106.768          
65              	5507.774          	6060.979          
65              	5567.030          	5904.760          
65              	5583.191          	5737.766          
70              	5505.081          	3615.334          
70              	5585.884          	3626.108          
70              	5653.220          	3558.772          
70              	5852.535          	3456.421          
70              	5938.725          	3402.552          
70              	5984.514          	3362.150          
70              	6014.141          	3337.909          
70              	6086.864          	3189.770          
71              	6032.996          	2853.090          
71              	5758.264          	2567.585          
71              	5596.658          	2427.526          
71              	5497.001          	2384.431          
71              	5405.423          	2422.139          
30              	5839.068          	6939.042          
30              	5911.791          	6920.188          
30              	6022.222          	6928.268          
30              	6089.558          	6933.655          
30              	6194.602          	6887.866          
30              	6216.150          	6909.414          
30              	6256.551          	7062.940          
30              	6248.471          	7084.488          
30              	6315.807          	7291.883          
30              	6393.917          	7324.204          
30              	6550.136          	7299.963          
31              	5734.023          	7143.743          
31              	5817.520          	7291.883          
33              	5866.424          	7621.285          
33              	5709.782          	7782.089          
33              	5688.235          	8062.207          
33              	5674.768          	8167.251          
33              	5690.928          	8401.581          
33              	5639.753          	8493.158          
33              	5580.497          	8617.056          
34              	5986.485          	7726.339          
34              	6011.498          	7771.362          
74              	5354.248          	5374.152          
74              	5294.992          	5250.253          
74              	5165.707          	5177.530          
74              	5125.305          	5104.807          
75              	5173.787          	4816.609          
75              	5130.692          	4474.542          
75              	5114.532          	4461.075          
75              	5119.919          	4277.921          
23              	4117.958          	9231.161          
23              	4236.470          	9056.087          
23              	4271.484          	8918.722          
23              	4266.097          	8816.371          
23              	4217.615          	8743.648          
23              	4212.229          	8652.071          
24              	4147.586          	8670.925          
24              	4085.637          	8716.714          
24              	3985.979          	8700.553          
24              	3894.402          	8679.005          
24              	3641.219          	8695.166          
24              	3474.225          	8662.845          
24              	3280.297          	8590.122          
25              	4190.681          	8544.333          
25              	4080.250          	8318.084          
25              	3980.592          	8005.645          
26              	3886.322          	7674.351          
26              	3875.548          	7491.197          
36              	3484.999          	6381.499          
36              	3439.211          	6273.761          
37              	3215.655          	6020.578          
37              	3142.932          	5969.402          
38              	3029.807          	6079.834          
39              	3056.742          	5955.935          
39              	2903.216          	6060.979          
39              	2843.960          	6071.753          
39              	2806.252          	6044.819          
39              	2744.302          	5896.680          
39              	2693.127          	5821.263          
39              	2569.229          	5821.263          
39              	2544.988          	5778.168          
40              	2569.229          	5627.335          
40              	2668.886          	5570.773          
40              	2744.302          	5498.050          
40              	2768.543          	5441.488          
40              	2768.543          	5379.539          
40              	2706.594          	5339.137          
40              	2590.776          	5309.509          
40              	2518.053          	5341.830          
40              	2493.812          	5333.750          
40              	2499.199          	5320.283          
40              	2388.768          	5301.429          
40              	2313.352          	5234.093          
40              	2286.417          	5172.144          
41              	2229.855          	5099.421          
41              	2178.680          	5185.611          
41              	2151.745          	5287.962          
41              	2135.585          	5446.875          
41              	2097.876          	5573.466          
41              	2084.409          	5573.466          
41              	1992.832          	5864.358          
42              	2264.870          	5072.486          
43              	2200.227          	5042.858          
43              	1990.139          	5174.837          
43              	1699.247          	5293.348          
43              	1526.867          	5422.634          
44              	2445.330          	4935.121          
44              	2539.601          	4811.222          
44              	2636.565          	4673.857          
44              	2725.448          	4498.783          
44              	2822.412          	4294.081          
44              	2876.281          	4194.424          
46              	3320.699          	3747.313          
46              	3382.648          	3604.560          
46              	3549.642          	3356.763          
46              	3700.474          	3047.018          
47              	3708.555          	2896.185          
47              	3595.430          	2974.295          
47              	3371.875          	3009.309          
47              	3366.488          	2955.441          
47              	3169.866          	2966.214          
47              	3137.545          	2898.878          
47              	3121.384          	2807.301          
47              	3194.107          	2640.308          
49              	4072.170          	3133.208          
49              	4223.002          	3160.142          
50              	3880.935          	2591.826          
50              	3856.694          	2497.555          
50              	3837.840          	2440.993          
50              	3798.929          	2407.987          
50              	3755.783          	2389.496          
52              	3592.737          	2088.152          
52              	3754.343          	1851.129          
52              	3859.388          	1681.442          
52              	3872.855          	1614.106          
52              	3859.388          	1519.836          
52              	3743.570          	1420.178          
52              	3614.284          	1317.828          
53              	3183.334          	1465.967          
53              	2892.442          	1676.055          
53              	2714.675          	1789.180          
54              	2544.988          	1993.882          
54              	2348.366          	2405.978          
54              	2194.840          	2745.352          
54              	2192.147          	3071.259          
54              	2178.680          	3141.288          
54              	2159.826          	3262.493          
56              	3843.227          	924.585           
56              	3945.578          	862.636           
56              	3977.899          	862.636           
56              	4045.235          	803.380           
57              	4020.994          	1387.857          
59              	4239.163          	1535.996          
60              	4328.047          	1474.047          
60              	4314.579          	1406.711          
60              	4314.579          	1358.229          
60              	4317.273          	1231.637          
61              	4438.478          	994.615           
61              	4454.638          	846.475           
61              	4521.974          	719.883           
62              	4438.478          	1511.755          
62              	4489.653          	1525.223          
62              	4508.507          	1649.121          
62              	4581.230          	1764.939          
62              	4600.084          	1864.596          
62              	4613.551          	1953.480          
62              	4697.048          	2026.203          
62              	4791.319          	2131.247          
63              	4877.509          	2562.198          
66              	5644.159          	5608.382          
66              	5434.677          	5315.107          
66              	5357.866          	5147.520          
66              	5204.246          	5077.693          
67              	5256.616          	4826.313          
67              	5204.246          	4365.451          
68              	5211.228          	4204.848          
68              	5403.254          	4271.184          
68              	5452.134          	4204.848          
68              	5441.659          	4162.951          
68              	5427.694          	4121.055          
69              	5333.427          	3827.779          
69              	5371.832          	3628.770          
78              	3987.965          	9314.650          