[TITLE]

[JUNCTIONS]
;ID                      Elevation       Demand Pattern                 
 Sondaje                 295.27559055               0                            ;
 Nodo1                   324.80314961               0                            ;
 J1                      311.73554219    5747.9964135                            ;
 J2                      308.68887346    10780.202482                            ;
 J3                       312.8742999    8414.3834048                            ;
 J4                      312.94667923    10855.404157                            ;
 J5                      313.50533377    8107.0600098                            ;
 J6                      311.73176668    10263.959171                            ;
 J7                      309.48651496    8438.1728124                            ;
 J8                      313.55794245    8400.3931455                            ;
 J9                      312.43217911     10992.96388                            ;
 J10                     311.33257739    10629.385148                            ;
 J11                      308.8609877     5593.236204                            ;
 J12                     308.65595641    5047.2736713                            ;
 J13                      312.8689421    5597.1783266                            ;
 J14                     312.67038324    10430.449855                            ;
 J15                     311.10135975    8668.8353671                            ;
 J16                     309.66305702    9610.4737701                            ;
 J17                     314.18385683      9694.56954                            ;
 J18                     312.78238613    5496.6807226                            ;
 J19                     309.45454098    6130.5204507                            ;
 J20                     311.19117396    4879.0726557                            ;
 J21                     311.15021767    10713.427478                            ;
 J22                      312.3346841    7430.1199879                            ;
 J23                     310.80763156    4892.0547874                            ;
 J24                     311.45252029    9559.5643707                            ;
 J25                     310.46843722    5640.1441564                            ;
 J26                     311.21688914    6450.3787311                            ;
 J27                      312.0322944    9791.8119395                            ;
 J28                     314.30452901    8161.2094258                            ;
 J29                     311.90579769    7208.7840613                            ;
 J30                     309.00242816    10474.934372                            ;
 J31                     311.48894317    6873.9562018                            ;
 J32                     309.71282828    6410.0009826                            ;
 J33                     308.68767305    6087.2397142                            ;
 J34                     312.87705143    8018.6012775                            ;
 J35                      310.6017611    9090.3273611                            ;
 J36                     311.86715696    6103.3848736                            ;
 J37                     309.62437168    9434.3509421                            ;
 J38                     313.95788669    10194.984005                            ;
 J39                     309.38067841    7622.5234056                            ;
 J40                     310.97464183    6691.1241128                            ;
 J41                     312.37409253    6338.9999901                            ;
 J42                     311.80500404    5608.3285821                            ;
 J43                     312.12263955    9068.5925733                            ;
 J44                     314.85267117    5081.3007213                            ;
 J45                     312.76201719    6815.7855109                            ;
 J46                     310.31193049    10470.602825                            ;
 J47                     312.69577692    9184.5452651                            ;
 J48                     314.76001599    4861.3750412                            ;
 J49                     312.81806487    8971.4648959                            ;
 J50                     313.22143312    9258.2720621                            ;

[RESERVOIRS]
;ID                                   Head                  Pattern

[TANKS]
;ID                              Elevation           Init Level            Min Level            Max Level             Diameter           Min Volume Volume Curve         Overflow            
 Estanque                 328.0839895    16.404199475     3.280839895     32.80839895     39.37007874               0                                             ;

[PIPES]
;ID                   Node1                Node2                              Length             Diameter            Roughness           Minor Loss               Status
 P_E_N1               Estanque             Nodo1                    98.42519685     5.905511811             100               0                 Open   ;
 P1                   Nodo1                J1                       196.8503937    2.9527559055             100               0                 Open   ;
 P2                   J1                   J2                       196.8503937    2.9527559055             100               0                 Open   ;
 P3                   J2                   J3                       196.8503937    2.9527559055             100               0                 Open   ;
 P4                   J3                   J4                       196.8503937    2.9527559055             100               0                 Open   ;
 P5                   J4                   J5                       196.8503937    2.9527559055             100               0                 Open   ;
 P6                   J5                   J6                       196.8503937    2.9527559055             100               0                 Open   ;
 P7                   J6                   J7                       196.8503937    2.9527559055             100               0                 Open   ;
 P8                   J7                   J8                       196.8503937    2.9527559055             100               0                 Open   ;
 P9                   J8                   J9                       196.8503937    2.9527559055             100               0                 Open   ;
 P10                  J9                   J10                      196.8503937    2.9527559055             100               0                 Open   ;
 P11                  Nodo1                J11                      196.8503937    2.9527559055             100               0                 Open   ;
 P12                  J11                  J12                      196.8503937    2.9527559055             100               0                 Open   ;
 P13                  J12                  J13                      196.8503937    2.9527559055             100               0                 Open   ;
 P14                  J13                  J14                      196.8503937    2.9527559055             100               0                 Open   ;
 P15                  J14                  J15                      196.8503937    2.9527559055             100               0                 Open   ;
 P16                  J15                  J16                      196.8503937    2.9527559055             100               0                 Open   ;
 P17                  J16                  J17                      196.8503937    2.9527559055             100               0                 Open   ;
 P18                  J17                  J18                      196.8503937    2.9527559055             100               0                 Open   ;
 P19                  J18                  J19                      196.8503937    2.9527559055             100               0                 Open   ;
 P20                  J19                  J20                      196.8503937    2.9527559055             100               0                 Open   ;
 P21                  Nodo1                J21                      196.8503937    2.9527559055             100               0                 Open   ;
 P22                  J21                  J22                      196.8503937    2.9527559055             100               0                 Open   ;
 P23                  J22                  J23                      196.8503937    2.9527559055             100               0                 Open   ;
 P24                  J23                  J24                      196.8503937    2.9527559055             100               0                 Open   ;
 P25                  J24                  J25                      196.8503937    2.9527559055             100               0                 Open   ;
 P26                  J25                  J26                      196.8503937    2.9527559055             100               0                 Open   ;
 P27                  J26                  J27                      196.8503937    2.9527559055             100               0                 Open   ;
 P28                  J27                  J28                      196.8503937    2.9527559055             100               0                 Open   ;
 P29                  J28                  J29                      196.8503937    2.9527559055             100               0                 Open   ;
 P30                  J29                  J30                      196.8503937    2.9527559055             100               0                 Open   ;
 P31                  Nodo1                J31                      196.8503937    2.9527559055             100               0                 Open   ;
 P32                  J31                  J32                      196.8503937    2.9527559055             100               0                 Open   ;
 P33                  J32                  J33                      196.8503937    2.9527559055             100               0                 Open   ;
 P34                  J33                  J34                      196.8503937    2.9527559055             100               0                 Open   ;
 P35                  J34                  J35                      196.8503937    2.9527559055             100               0                 Open   ;
 P36                  J35                  J36                      196.8503937    2.9527559055             100               0                 Open   ;
 P37                  J36                  J37                      196.8503937    2.9527559055             100               0                 Open   ;
 P38                  J37                  J38                      196.8503937    2.9527559055             100               0                 Open   ;
 P39                  J38                  J39                      196.8503937    2.9527559055             100               0                 Open   ;
 P40                  J39                  J40                      196.8503937    2.9527559055             100               0                 Open   ;
 P41                  Nodo1                J41                      196.8503937    2.9527559055             100               0                 Open   ;
 P42                  J41                  J42                      196.8503937    2.9527559055             100               0                 Open   ;
 P43                  J42                  J43                      196.8503937    2.9527559055             100               0                 Open   ;
 P44                  J43                  J44                      196.8503937    2.9527559055             100               0                 Open   ;
 P45                  J44                  J45                      196.8503937    2.9527559055             100               0                 Open   ;
 P46                  J45                  J46                      196.8503937    2.9527559055             100               0                 Open   ;
 P47                  J46                  J47                      196.8503937    2.9527559055             100               0                 Open   ;
 P48                  J47                  J48                      196.8503937    2.9527559055             100               0                 Open   ;
 P49                  J48                  J49                      196.8503937    2.9527559055             100               0                 Open   ;
 P50                  J49                  J50                      196.8503937    2.9527559055             100               0                 Open   ;

[PUMPS]
;ID                   Node1                Node2                Properties          
 B1                   Sondaje              Estanque             HEAD     curva_bomba            ;

[VALVES]
;ID                   Node1                Node2                            Diameter Type              Setting           Minor Loss

[TAGS]
;type      name       tag       

[DEMANDS]
;ID        Demand     Pattern   

[STATUS]
;ID        Setting   

[PATTERNS]
;ID        Multipliers

[CURVES]
;ID         X-Value      Y-Value     
;PUMP: curva_bomba
 curva_bomba     0.000000    82.020997   ;
 curva_bomba 158503.231415    82.020997   ;


[CONTROLS]

[RULES]

[ENERGY]
GLOBAL PRICE           0.0000

[EMITTERS]
;ID        Flow coefficient

[QUALITY]

[SOURCES]
;Node      Type       Quality    Pattern   

[REACTIONS]
;Type           Pipe/Tank               Coefficient

 ORDER BULK 1
 ORDER TANK 1
 ORDER WALL 1
 GLOBAL BULK 0.0000    
 GLOBAL WALL 0.0000    

[MIXING]
;Tank ID             Model Fraction

[TIMES]
DURATION             168:00:00
HYDRAULIC TIMESTEP   00:15:00
QUALITY TIMESTEP     00:06:00
PATTERN TIMESTEP     01:00:00
PATTERN START        00:00:00
REPORT TIMESTEP      00:15:00
REPORT START         00:00:00
START CLOCKTIME      00:00:00 AM
RULE TIMESTEP        00:06:00
STATISTIC            NONE      

[REPORT]

[OPTIONS]
UNITS                GPM                 
HEADLOSS             H-W                 
SPECIFIC GRAVITY     1
VISCOSITY            1
TRIALS               200
ACCURACY             0.001
CHECKFREQ            2
MAXCHECK             10
UNBALANCED           STOP                
PATTERN              1                   
DEMAND MULTIPLIER    1
EMITTER EXPONENT     0.5
QUALITY              NONE                
DIFFUSIVITY          1
TOLERANCE            0.01

[COORDINATES]
;Node      X-Coord    Y-Coord   
Sondaje             0.000000000        300.000000000
Estanque            0.000000000        200.000000000
Nodo1               0.000000000        100.000000000
J1               -208.165305884         65.156994245
J2               -216.932239863         30.798234999
J3               -217.613932819          1.923976493
J4               -214.061571724        -25.960185019
J5               -214.221757680        -57.931483471
J6               -207.562980052        -90.034018918
J7               -203.426000948       -123.817231586
J8               -210.276269216       -158.226928381
J9               -212.518247760       -193.115203593
J10              -220.811147858       -227.258353392
J11              -108.163010087         74.214639167
J12               -98.586784437         41.190363117
J13               -99.860863930         11.727641788
J14              -101.093246089        -18.687242355
J15               -93.421621779        -51.554921753
J16               -92.589611491        -81.874995301
J17               -83.594800362       -111.444788179
J18               -88.337778755       -136.845466731
J19               -94.760824786       -168.821739105
J20               -90.685768500       -203.483987353
J21                -7.117369174         69.114353913
J22                 2.611442925         40.239003656
J23                 5.685251752         10.249511328
J24                 7.960568895        -24.615748592
J25                10.865516722        -51.442947580
J26                11.212542820        -82.596974217
J27                 4.290276755       -113.229667848
J28                -1.229087079       -146.921263895
J29                -6.422724905       -177.740306479
J30                -8.991459178       -209.124900530
J31               104.446298630         69.455576913
J32                99.245353125         39.570570060
J33                99.242097506          7.703212411
J34                93.754474465        -18.287624170
J35                91.043121815        -51.149991184
J36               100.825317403        -78.914855813
J37                96.380982635       -108.000889668
J38                89.955815677       -142.277754203
J39                95.376492771       -167.318988009
J40               102.795783241       -200.304853352
J41               209.444275208         70.753829520
J42               206.296730824         37.827002114
J43               211.697195959          9.451764506
J44               209.528753699        -16.739678339
J45               204.216823382        -47.402204143
J46               205.881454132        -79.030018727
J47               213.125900166       -107.161583440
J48               208.377050036       -133.026695077
J49               204.011527256       -167.196158788
J50               194.084416020       -192.800627053

[VERTICES]
;Link      X-Coord    Y-Coord   

[LABELS]

[BACKDROP]
UNITS    NONE

[END]
